%NprocShared=28
%Chk=gauss.chk
%Mem=50GB
#n CCSD-T/Def2TZVPP 

Dichloromethane scf

0 1
C         -1.07673        1.09508        0.08555
Cl         0.70112        1.11024        0.06910
Cl        -1.69042        2.22628       -1.14123
H         -1.43992        0.07150       -0.14064
H         -1.43992        1.40336        1.08746


